!- Darwin Line endings 

Version,
    9.3;                      !- Version Identifier

SimulationControl,
    Yes,                      !- Do Zone Sizing Calculation
    Yes,                      !- Do System Sizing Calculation
    No,                       !- Do Plant Sizing Calculation
    No,                       !- Run Simulation for Sizing Periods
    Yes;                      !- Run Simulation for Weather File Run Periods

Building,
    Building,                 !- Name
    30.0,                     !- North Axis
    City,                     !- Terrain
    0.04,                     !- Loads Convergence Tolerance Value
    0.4,                      !- Temperature Convergence Tolerance Value
    FullExterior,             !- Solar Distribution
    25,                       !- Maximum Number of Warmup Days
    6;                        !- Minimum Number of Warmup Days

SurfaceConvectionAlgorithm:Inside,
    Simple;                   !- Algorithm

SurfaceConvectionAlgorithm:Outside,
    SimpleCombined;           !- Algorithm

HeatBalanceAlgorithm,
    ConductionTransferFunction;    !- Algorithm

Timestep,
    4;                        !- Number of Timesteps per Hour

Site:Location,
    Pittsburgh Allegheny Co Ap_PA_USA Design_Conditions,    !- Name
    40.35,                    !- Latitude
    -79.92,                   !- Longitude
    -5.0,                     !- Time Zone
    380.0;                    !- Elevation

SizingPeriod:DesignDay,
    Pittsburgh Allegheny Co Ap Ann Htg 99.6% Condns DB,    !- Name
    1,                        !- Month
    21,                       !- Day of Month
    WinterDesignDay,          !- Day Type
    -15.4,                    !- Maximum DryBulb Temperature
    0.0,                      !- Daily DryBulb Temperature Range
    DefaultMultipliers,       !- DryBulb Temperature Range Modifier Type
    ,                         !- DryBulb Temperature Range Modifier Day Schedule Name
    Wetbulb,                  !- Humidity Condition Type
    -15.4,                    !- Wetbulb or DewPoint at Maximum DryBulb
    ,                         !- Humidity Condition Day Schedule Name
    ,                         !- Humidity Ratio at Maximum DryBulb
    ,                         !- Enthalpy at Maximum DryBulb
    ,                         !- Daily WetBulb Temperature Range
    96842.0,                  !- Barometric Pressure
    4.7,                      !- Wind Speed
    240.0,                    !- Wind Direction
    No,                       !- Rain Indicator
    No,                       !- Snow Indicator
    No,                       !- Daylight Saving Time Indicator
    ASHRAEClearSky,           !- Solar Model Indicator
    ,                         !- Beam Solar Day Schedule Name
    ,                         !- Diffuse Solar Day Schedule Name
    ,                         !- ASHRAE Clear Sky Optical Depth for Beam Irradiance taub
    ,                         !- ASHRAE Clear Sky Optical Depth for Diffuse Irradiance taud
    0.0;                      !- Sky Clearness

SizingPeriod:DesignDay,
    Pittsburgh Allegheny Co Ap Ann Clg .4% Condns DB=>MWB,    !- Name
    7,                        !- Month
    21,                       !- Day of Month
    SummerDesignDay,          !- Day Type
    32.2,                     !- Maximum DryBulb Temperature
    9.9,                      !- Daily DryBulb Temperature Range
    DefaultMultipliers,       !- DryBulb Temperature Range Modifier Type
    ,                         !- DryBulb Temperature Range Modifier Day Schedule Name
    Wetbulb,                  !- Humidity Condition Type
    22.5,                     !- Wetbulb or DewPoint at Maximum DryBulb
    ,                         !- Humidity Condition Day Schedule Name
    ,                         !- Humidity Ratio at Maximum DryBulb
    ,                         !- Enthalpy at Maximum DryBulb
    ,                         !- Daily WetBulb Temperature Range
    96842.0,                  !- Barometric Pressure
    4.4,                      !- Wind Speed
    240.0,                    !- Wind Direction
    No,                       !- Rain Indicator
    No,                       !- Snow Indicator
    No,                       !- Daylight Saving Time Indicator
    ASHRAETau,                !- Solar Model Indicator
    ,                         !- Beam Solar Day Schedule Name
    ,                         !- Diffuse Solar Day Schedule Name
    0.484,                    !- ASHRAE Clear Sky Optical Depth for Beam Irradiance taub
    1.916;                    !- ASHRAE Clear Sky Optical Depth for Diffuse Irradiance taud

RunPeriod,
    RUNPERIOD 1,              !- Name
    1,                        !- Begin Month
    1,                        !- Begin Day of Month
    ,                         !- Begin Year
    4,                        !- End Month
    1,                        !- End Day of Month
    ,                         !- End Year
    Monday,                   !- Day of Week for Start Day
    Yes,                      !- Use Weather File Holidays and Special Days
    Yes,                      !- Use Weather File Daylight Saving Period
    No,                       !- Apply Weekend Holiday Rule
    Yes,                      !- Use Weather File Rain Indicators
    Yes,                      !- Use Weather File Snow Indicators
    ;                         !- Treat Weather as Actual

Site:GroundTemperature:BuildingSurface,
    20.03,                    !- January Ground Temperature
    20.03,                    !- February Ground Temperature
    20.13,                    !- March Ground Temperature
    20.3,                     !- April Ground Temperature
    20.43,                    !- May Ground Temperature
    20.52,                    !- June Ground Temperature
    20.62,                    !- July Ground Temperature
    20.77,                    !- August Ground Temperature
    20.78,                    !- September Ground Temperature
    20.55,                    !- October Ground Temperature
    20.44,                    !- November Ground Temperature
    20.2;                     !- December Ground Temperature

ScheduleTypeLimits,
    Any Number;               !- Name

ScheduleTypeLimits,
    Fraction,                 !- Name
    0.0,                      !- Lower Limit Value
    1.0,                      !- Upper Limit Value
    CONTINUOUS;               !- Numeric Type

ScheduleTypeLimits,
    Temperature,              !- Name
    -60.0,                    !- Lower Limit Value
    200.0,                    !- Upper Limit Value
    CONTINUOUS,               !- Numeric Type
    Temperature;              !- Unit Type

ScheduleTypeLimits,
    Control Type,             !- Name
    0.0,                      !- Lower Limit Value
    4.0,                      !- Upper Limit Value
    DISCRETE;                 !- Numeric Type

ScheduleTypeLimits,
    On/Off,                   !- Name
    0.0,                      !- Lower Limit Value
    1.0,                      !- Upper Limit Value
    DISCRETE;                 !- Numeric Type

ScheduleTypeLimits,
    FlowRate,                 !- Name
    0.0,                      !- Lower Limit Value
    10.0,                     !- Upper Limit Value
    CONTINUOUS;               !- Numeric Type

Schedule:Compact,
    OCCUPY-1,                 !- Name
    Fraction,                 !- Schedule Type Limits Name
    Through: 12/31,           !- Field 1
    For: AllDays,             !- Field 2
    Until: 8:00,              !- Field 3
    0.0,                      !- Field 4
    Until: 18:00,             !- Field 5
    1.00,                     !- Field 6
    Until: 24:00,             !- Field 7
    0.0;                      !- Field 8

Schedule:Compact,
    LIGHTS-1,                 !- Name
    Fraction,                 !- Schedule Type Limits Name
    Through: 12/31,           !- Field 1
    For: AllDays,             !- Field 2
    Until: 8:00,              !- Field 3
    0.05,                     !- Field 4
    Until: 18:00,             !- Field 5
    1.00,                     !- Field 6
    Until: 24:00,             !- Field 7
    0.05;                     !- Field 8

Schedule:Compact,
    EQUIP-1,                  !- Name
    Fraction,                 !- Schedule Type Limits Name
    Through: 12/31,           !- Field 1
    For:AllDays,              !- Field 2
    Until: 8:00,              !- Field 3
    0.02,                     !- Field 4
    Until: 18:00,             !- Field 5
    0.5,                      !- Field 6
    Until: 24:00,             !- Field 7
    0.02;                     !- Field 8

Schedule:Compact,
    INFIL-SCH,                !- Name
    Fraction,                 !- Schedule Type Limits Name
    Through: 3/31,            !- Field 1
    For: AllDays,             !- Field 2
    Until: 24:00,             !- Field 3
    1.0,                      !- Field 4
    Through: 10/31,           !- Field 5
    For: AllDays,             !- Field 6
    Until: 24:00,             !- Field 7
    0.0,                      !- Field 8
    Through: 12/31,           !- Field 9
    For: AllDays,             !- Field 10
    Until: 24:00,             !- Field 11
    1.0;                      !- Field 12

Schedule:Compact,
    ActSchd,                  !- Name
    Any Number,               !- Schedule Type Limits Name
    Through: 12/31,           !- Field 1
    For: AllDays,             !- Field 2
    Until: 24:00,             !- Field 3
    117.239997864;            !- Field 4

Schedule:Compact,
    BasinHeaterSched,         !- Name
    On/Off,                   !- Schedule Type Limits Name
    Through: 12/31,           !- Field 1
    For: AllDays,             !- Field 2
    Until: 24:00,             !- Field 3
    1.0;                      !- Field 4

Schedule:Compact,
    ShadeTransSch,            !- Name
    Fraction,                 !- Schedule Type Limits Name
    Through: 12/31,           !- Field 1
    For: AllDays,             !- Field 2
    Until: 24:00,             !- Field 3
    0.0;                      !- Field 4

Schedule:Compact,
    ClothingSch,              !- Name
    Any Number,               !- Schedule Type Limits Name
    Through: 4/1,             !- Field 1
    For: AllDays,             !- Field 2
    Until: 24:00,             !- Field 3
    1,                        !- Field 4
    Through: 9/30,            !- Field 5
    For: AllDays,             !- Field 6
    Until: 24:00,             !- Field 7
    .5,                       !- Field 8
    Through: 12/31,           !- Field 9
    For: AllDays,             !- Field 10
    Until: 24:00,             !- Field 11
    1;                        !- Field 12

Schedule:Compact,
    ActivitySch,              !- Name
    Any Number,               !- Schedule Type Limits Name
    Through: 12/31,           !- Field 1
    For: AllDays,             !- Field 2
    Until: 24:00,             !- Field 3
    117;                      !- Field 4

Schedule:Compact,
    AirVelocitySch,           !- Name
    Any Number,               !- Schedule Type Limits Name
    Through: 12/31,           !- Field 1
    For: AllDays,             !- Field 2
    Until: 24:00,             !- Field 3
    .137;                     !- Field 4

Schedule:Compact,
    WorkEffSch,               !- Name
    Fraction,                 !- Schedule Type Limits Name
    Through: 12/31,           !- Field 1
    For: AllDays,             !- Field 2
    Until: 24:00,             !- Field 3
    0.0;                      !- Field 4

Schedule:Compact,
    Htg-SetP-Sch,             !- Name
    Temperature,              !- Schedule Type Limits Name
    Through: 12/31,           !- Field 1
    For: SummerDesignDay,     !- Field 2
    Until: 24:00,             !- Field 3
    12.8,                     !- Field 4
    For: WinterDesignDay,     !- Field 5
    Until: 24:00,             !- Field 6
    21.1,                     !- Field 7
    For: AllOtherDays,        !- Field 8
    Until: 7:00,              !- Field 9
    12.8,                     !- Field 10
    Until: 18:00,             !- Field 11
    21.1,                     !- Field 12
    Until: 24:00,             !- Field 13
    12.8;                     !- Field 14

Schedule:Compact,
    PlenumHtg-SetP-Sch,       !- Name
    Temperature,              !- Schedule Type Limits Name
    Through: 12/31,           !- Field 1
    For: AllDays,             !- Field 2
    Until: 24:00,             !- Field 3
    12.8;                     !- Field 4

Schedule:Compact,
    Clg-SetP-Sch,             !- Name
    Temperature,              !- Schedule Type Limits Name
    Through: 12/31,           !- Field 1
    For: SummerDesignDay,     !- Field 2
    Until: 24:00,             !- Field 3
    23.9,                     !- Field 4
    For: WinterDesignDay,     !- Field 5
    Until: 24:00,             !- Field 6
    40.0,                     !- Field 7
    For: AllOtherDays,        !- Field 8
    Until: 7:00,              !- Field 9
    40.0,                     !- Field 10
    Until: 18:00,             !- Field 11
    23.9,                     !- Field 12
    Until: 24:00,             !- Field 13
    40.0;                     !- Field 14

Schedule:Compact,
    PlenumClg-SetP-Sch,       !- Name
    Temperature,              !- Schedule Type Limits Name
    Through: 12/31,           !- Field 1
    For: AllDays,             !- Field 2
    Until: 24:00,             !- Field 3
    40.0;                     !- Field 4

Schedule:Compact,
    Zone Control Type Sched,    !- Name
    Control Type,             !- Schedule Type Limits Name
    Through: 12/31,           !- Field 1
    For: SummerDesignDay,     !- Field 2
    Until: 24:00,             !- Field 3
    2,                        !- Field 4
    For: WinterDesignDay,     !- Field 5
    Until: 24:00,             !- Field 6
    1,                        !- Field 7
    For: AllOtherDays,        !- Field 8
    Until: 24:00,             !- Field 9
    4;                        !- Field 10

Schedule:Compact,
    Min OA Sched,             !- Name
    Fraction,                 !- Schedule Type Limits Name
    Through: 12/31,           !- Field 1
    For: AllDays,             !- Field 2
    Until: 24:00,             !- Field 3
    1.0;                      !- Field 4

Schedule:Compact,
    FanAvailSched,            !- Name
    Fraction,                 !- Schedule Type Limits Name
    Through: 12/31,           !- Field 1
    For: AllDays,             !- Field 2
    Until: 24:00,             !- Field 3
    1.0;                      !- Field 4

Schedule:Compact,
    CoolingCoilAvailSched,    !- Name
    Fraction,                 !- Schedule Type Limits Name
    Through: 12/31,           !- Field 1
    For: AllDays,             !- Field 2
    Until: 24:00,             !- Field 3
    0.0;                      !- Field 4

Schedule:Compact,
    HeatingCoilAvailSched,    !- Name
    Fraction,                 !- Schedule Type Limits Name
    Through: 12/31,           !- Field 1
    For: AllDays,             !- Field 2
    Until: 24:00,             !- Field 3
    1.0;                      !- Field 4

Schedule:Compact,
    ReheatCoilAvailSched,     !- Name
    Fraction,                 !- Schedule Type Limits Name
    Through: 12/31,           !- Field 1
    For: AllDays,             !- Field 2
    Until: 24:00,             !- Field 3
    0.0;                      !- Field 4

Schedule:Compact,
    TerminalUnitAvailSched,    !- Name
    Fraction,                 !- Schedule Type Limits Name
    Through: 12/31,           !- Field 1
    For: AllDays,             !- Field 2
    Until: 24:00,             !- Field 3
    1.0;                      !- Field 4

Schedule:Compact,
    Seasonal Reset Supply Air Temp Sch,    !- Name
    Temperature,              !- Schedule Type Limits Name
    Through: 3/31,            !- Field 1
    For: AllDays,             !- Field 2
    Until: 24:00,             !- Field 3
    17.0,                     !- Field 4
    Through: 9/30,            !- Field 5
    For: AllDays,             !- Field 6
    Until: 24:00,             !- Field 7
    15.0,                     !- Field 8
    Through: 12/31,           !- Field 9
    For: AllDays,             !- Field 10
    Until: 24:00,             !- Field 11
    17.0;                     !- Field 12

Schedule:Compact,
    Min OARequirements Sched,    !- Name
    Any Number,               !- Schedule Type Limits Name
    Through: 12/31,           !- Field 1
    For: AllDays,             !- Field 2
    Until: 24:00,             !- Field 3
    1.0;                      !- Field 4

Schedule:Constant,
    SAT_SP,                   !- Name
    Temperature,              !- Schedule Type Limits Name
    10.0;                     !- Hourly Value

Material,
    WD10,                     !- Name
    MediumSmooth,             !- Roughness
    0.667,                    !- Thickness
    0.115,                    !- Conductivity
    513.0,                    !- Density
    1381.0,                   !- Specific Heat
    0.9,                      !- Thermal Absorptance
    0.78,                     !- Solar Absorptance
    0.78;                     !- Visible Absorptance

Material,
    RG01,                     !- Name
    Rough,                    !- Roughness
    0.0127,                   !- Thickness
    1.442,                    !- Conductivity
    881.0,                    !- Density
    1674.0,                   !- Specific Heat
    0.9,                      !- Thermal Absorptance
    0.65,                     !- Solar Absorptance
    0.65;                     !- Visible Absorptance

Material,
    BR01,                     !- Name
    VeryRough,                !- Roughness
    0.0094999997,             !- Thickness
    0.162,                    !- Conductivity
    1121.0,                   !- Density
    1464.0,                   !- Specific Heat
    0.9,                      !- Thermal Absorptance
    0.7,                      !- Solar Absorptance
    0.7;                      !- Visible Absorptance

Material,
    IN46,                     !- Name
    VeryRough,                !- Roughness
    0.076200001,              !- Thickness
    0.023,                    !- Conductivity
    24.0,                     !- Density
    1590.0,                   !- Specific Heat
    0.9,                      !- Thermal Absorptance
    0.5,                      !- Solar Absorptance
    0.5;                      !- Visible Absorptance

Material,
    WD01,                     !- Name
    MediumSmooth,             !- Roughness
    0.019099999,              !- Thickness
    0.115,                    !- Conductivity
    513.0,                    !- Density
    1381.0,                   !- Specific Heat
    0.9,                      !- Thermal Absorptance
    0.78,                     !- Solar Absorptance
    0.78;                     !- Visible Absorptance

Material,
    PW03,                     !- Name
    MediumSmooth,             !- Roughness
    0.0127,                   !- Thickness
    0.115,                    !- Conductivity
    545.0,                    !- Density
    1213.0,                   !- Specific Heat
    0.9,                      !- Thermal Absorptance
    0.78,                     !- Solar Absorptance
    0.78;                     !- Visible Absorptance

Material,
    IN02,                     !- Name
    Rough,                    !- Roughness
    0.090099998,              !- Thickness
    0.043000001,              !- Conductivity
    10.0,                     !- Density
    837.0,                    !- Specific Heat
    0.9,                      !- Thermal Absorptance
    0.75,                     !- Solar Absorptance
    0.75;                     !- Visible Absorptance

Material,
    GP01,                     !- Name
    MediumSmooth,             !- Roughness
    0.0127,                   !- Thickness
    0.16,                     !- Conductivity
    801.0,                    !- Density
    837.0,                    !- Specific Heat
    0.9,                      !- Thermal Absorptance
    0.75,                     !- Solar Absorptance
    0.75;                     !- Visible Absorptance

Material,
    GP02,                     !- Name
    MediumSmooth,             !- Roughness
    0.015900001,              !- Thickness
    0.16,                     !- Conductivity
    801.0,                    !- Density
    837.0,                    !- Specific Heat
    0.9,                      !- Thermal Absorptance
    0.75,                     !- Solar Absorptance
    0.75;                     !- Visible Absorptance

Material,
    CC03,                     !- Name
    MediumRough,              !- Roughness
    0.1016,                   !- Thickness
    1.31,                     !- Conductivity
    2243.0,                   !- Density
    837.0,                    !- Specific Heat
    0.9,                      !- Thermal Absorptance
    0.65,                     !- Solar Absorptance
    0.65;                     !- Visible Absorptance

Material:NoMass,
    CP01,                     !- Name
    Rough,                    !- Roughness
    0.367,                    !- Thermal Resistance
    0.9,                      !- Thermal Absorptance
    0.75,                     !- Solar Absorptance
    0.75;                     !- Visible Absorptance

Material:NoMass,
    MAT-SB-U,                 !- Name
    Rough,                    !- Roughness
    0.117406666,              !- Thermal Resistance
    0.65,                     !- Thermal Absorptance
    0.65,                     !- Solar Absorptance
    0.65;                     !- Visible Absorptance

Material:NoMass,
    MAT-CLNG-1,               !- Name
    Rough,                    !- Roughness
    0.65225929,               !- Thermal Resistance
    0.65,                     !- Thermal Absorptance
    0.65,                     !- Solar Absorptance
    0.65;                     !- Visible Absorptance

Material:NoMass,
    MAT-FLOOR-1,              !- Name
    Rough,                    !- Roughness
    3.522199631,              !- Thermal Resistance
    0.65,                     !- Thermal Absorptance
    0.65,                     !- Solar Absorptance
    0.65;                     !- Visible Absorptance

Material:InfraredTransparent,
    IRTMaterial;              !- Name

Material:AirGap,
    AL21,                     !- Name
    0.157;                    !- Thermal Resistance

Material:AirGap,
    AL23,                     !- Name
    0.153;                    !- Thermal Resistance

WindowMaterial:Glazing,
    CLEAR 3MM,                !- Name
    SpectralAverage,          !- Optical Data Type
    ,                         !- Window Glass Spectral Data Set Name
    0.003,                    !- Thickness
    0.837,                    !- Solar Transmittance at Normal Incidence
    0.075,                    !- Front Side Solar Reflectance at Normal Incidence
    0.075,                    !- Back Side Solar Reflectance at Normal Incidence
    0.898,                    !- Visible Transmittance at Normal Incidence
    0.081,                    !- Front Side Visible Reflectance at Normal Incidence
    0.081,                    !- Back Side Visible Reflectance at Normal Incidence
    0.0,                      !- Infrared Transmittance at Normal Incidence
    0.84,                     !- Front Side Infrared Hemispherical Emissivity
    0.84,                     !- Back Side Infrared Hemispherical Emissivity
    0.9;                      !- Conductivity

WindowMaterial:Glazing,
    GREY 3MM,                 !- Name
    SpectralAverage,          !- Optical Data Type
    ,                         !- Window Glass Spectral Data Set Name
    0.003,                    !- Thickness
    0.626,                    !- Solar Transmittance at Normal Incidence
    0.061,                    !- Front Side Solar Reflectance at Normal Incidence
    0.061,                    !- Back Side Solar Reflectance at Normal Incidence
    0.611,                    !- Visible Transmittance at Normal Incidence
    0.061,                    !- Front Side Visible Reflectance at Normal Incidence
    0.061,                    !- Back Side Visible Reflectance at Normal Incidence
    0.0,                      !- Infrared Transmittance at Normal Incidence
    0.84,                     !- Front Side Infrared Hemispherical Emissivity
    0.84,                     !- Back Side Infrared Hemispherical Emissivity
    0.9;                      !- Conductivity

WindowMaterial:Glazing,
    CLEAR 6MM,                !- Name
    SpectralAverage,          !- Optical Data Type
    ,                         !- Window Glass Spectral Data Set Name
    0.006,                    !- Thickness
    0.775,                    !- Solar Transmittance at Normal Incidence
    0.071,                    !- Front Side Solar Reflectance at Normal Incidence
    0.071,                    !- Back Side Solar Reflectance at Normal Incidence
    0.881,                    !- Visible Transmittance at Normal Incidence
    0.08,                     !- Front Side Visible Reflectance at Normal Incidence
    0.08,                     !- Back Side Visible Reflectance at Normal Incidence
    0.0,                      !- Infrared Transmittance at Normal Incidence
    0.84,                     !- Front Side Infrared Hemispherical Emissivity
    0.84,                     !- Back Side Infrared Hemispherical Emissivity
    0.9;                      !- Conductivity

WindowMaterial:Glazing,
    LoE CLEAR 6MM,            !- Name
    SpectralAverage,          !- Optical Data Type
    ,                         !- Window Glass Spectral Data Set Name
    0.006,                    !- Thickness
    0.6,                      !- Solar Transmittance at Normal Incidence
    0.17,                     !- Front Side Solar Reflectance at Normal Incidence
    0.22,                     !- Back Side Solar Reflectance at Normal Incidence
    0.84,                     !- Visible Transmittance at Normal Incidence
    0.055,                    !- Front Side Visible Reflectance at Normal Incidence
    0.078,                    !- Back Side Visible Reflectance at Normal Incidence
    0.0,                      !- Infrared Transmittance at Normal Incidence
    0.84,                     !- Front Side Infrared Hemispherical Emissivity
    0.1,                      !- Back Side Infrared Hemispherical Emissivity
    0.9;                      !- Conductivity

WindowMaterial:Gas,
    AIR 6MM,                  !- Name
    Air,                      !- Gas Type
    0.0063;                   !- Thickness

WindowMaterial:Gas,
    AIR 13MM,                 !- Name
    Air,                      !- Gas Type
    0.0127;                   !- Thickness

WindowMaterial:Gas,
    ARGON 13MM,               !- Name
    Argon,                    !- Gas Type
    0.0127;                   !- Thickness

Construction,
    ROOF-1,                   !- Name
    RG01,                     !- Outside Layer
    BR01,                     !- Layer 2
    IN46,                     !- Layer 3
    WD01;                     !- Layer 4

Construction,
    WALL-1,                   !- Name
    WD01,                     !- Outside Layer
    PW03,                     !- Layer 2
    IN02,                     !- Layer 3
    GP01;                     !- Layer 4

Construction,
    CLNG-1,                   !- Name
    MAT-CLNG-1;               !- Outside Layer

Construction,
    SB-U,                     !- Name
    MAT-SB-U;                 !- Outside Layer

Construction,
    FLOOR-1,                  !- Name
    MAT-FLOOR-1;              !- Outside Layer

Construction,
    FLOOR-SLAB-1,             !- Name
    CC03,                     !- Outside Layer
    CP01;                     !- Layer 2

Construction,
    INT-WALL-1,               !- Name
    IRTMaterial;              !- Outside Layer

Construction,
    Dbl Clr 3mm/13mm Air,     !- Name
    CLEAR 3MM,                !- Outside Layer
    AIR 13MM,                 !- Layer 2
    CLEAR 3MM;                !- Layer 3

Construction,
    Dbl Clr 3mm/13mm Arg,     !- Name
    CLEAR 3MM,                !- Outside Layer
    ARGON 13MM,               !- Layer 2
    CLEAR 3MM;                !- Layer 3

Construction,
    Sgl Grey 3mm,             !- Name
    GREY 3MM;                 !- Outside Layer

Construction,
    Dbl Clr 6mm/6mm Air,      !- Name
    CLEAR 6MM,                !- Outside Layer
    AIR 6MM,                  !- Layer 2
    CLEAR 6MM;                !- Layer 3

Construction,
    Dbl LoE (e2=.1) Clr 6mm/6mm Air,    !- Name
    LoE CLEAR 6MM,            !- Outside Layer
    AIR 6MM,                  !- Layer 2
    CLEAR 6MM;                !- Layer 3

GlobalGeometryRules,
    UpperLeftCorner,          !- Starting Vertex Position
    CounterClockWise,         !- Vertex Entry Direction
    Relative;                 !- Coordinate System

Zone,
    PLENUM-1,                 !- Name
    0.0,                      !- Direction of Relative North
    0.0,                      !- X Origin
    0.0,                      !- Y Origin
    0.0,                      !- Z Origin
    1,                        !- Type
    1,                        !- Multiplier
    0.609600067,              !- Ceiling Height
    283.2;                    !- Volume

Zone,
    SPACE1-1,                 !- Name
    0.0,                      !- Direction of Relative North
    0.0,                      !- X Origin
    0.0,                      !- Y Origin
    0.0,                      !- Z Origin
    1,                        !- Type
    1,                        !- Multiplier
    2.438400269,              !- Ceiling Height
    239.247360229;            !- Volume

Zone,
    SPACE2-1,                 !- Name
    0.0,                      !- Direction of Relative North
    0.0,                      !- X Origin
    0.0,                      !- Y Origin
    0.0,                      !- Z Origin
    1,                        !- Type